
**** 03/20/16 23:14:13 ****** PSpice Lite (October 2012) ****** ID# 10813 ****

 ** Profile: "SCHEMATIC1-5656"  [ C:\Users\Jubayer\Desktop\EEE Complete Project\Group IV\Lab 6\Exp 6-PSpiceFiles\SCHEMATIC1\5656.sim 


 ****     CIRCUIT DESCRIPTION


******************************************************************************




** Creating circuit file "5656.cir" 
** WARNING: THIS AUTOMATICALLY GENERATED FILE MAY BE OVERWRITTEN BY SUBSEQUENT SIMULATIONS

*Libraries: 
* Profile Libraries :
* Local Libraries :
* From [PSPICE NETLIST] section of C:\Users\Jubayer\AppData\Roaming\SPB_16.6\cdssetup\OrCAD_PSpice/16.6.0/PSpice.ini file:
.lib "nomd.lib" 

*Analysis directives: 
.TRAN  0 1000ns 0 
.OPTIONS ADVCONV
.PROBE64 V(alias(*)) I(alias(*)) W(alias(*)) D(alias(*)) NOISE(alias(*)) 
.INC "..\SCHEMATIC1.net" 



**** INCLUDING SCHEMATIC1.net ****
* source EXP 6
V_Vth         = Voc N00946 0 7.5Vdc
-----------------------------$
ERROR -- Expecting keyword STIMULUS, saw 7.5Vdc.

R_Rth         N00946 N00953  6.65k TC=0,0 
R_RtL         0 N00953  5.2k TC=0,0 
I_I2         0 N01088 DC 1.13Adc  
R_RN         0 N01088  6.65k TC=0,0 
R_RnL         0 N01088  5.2k TC=0,0 
R_R1         0 N02104  47k TC=0,0 
R_R2         N02093 N02100  10k TC=0,0 
R_R3         N02100 N02104  1k TC=0,0 
R_R4         N02104 N02108  33k TC=0,0 
R_RL         0 N02100  22k TC=0,0 
V_V1         N02093 0 10Vdc
V_V2         N02108 0 5Vdc

**** RESUMING 5656.cir ****
.END
