
**** 03/11/16 23:23:57 ****** PSpice Lite (October 2012) ****** ID# 10813 ****

 ** Profile: "SCHEMATIC1-lab 1"  [ F:\GROUP IV\LAB 1\Exp 1-PSpiceFiles\SCHEMATIC1\lab 1.sim ] 


 ****     CIRCUIT DESCRIPTION


******************************************************************************




** Creating circuit file "lab 1.cir" 
** WARNING: THIS AUTOMATICALLY GENERATED FILE MAY BE OVERWRITTEN BY SUBSEQUENT SIMULATIONS

*Libraries: 
* Profile Libraries :
* Local Libraries :
* From [PSPICE NETLIST] section of C:\Users\Jubayer\AppData\Roaming\SPB_16.6\cdssetup\OrCAD_PSpice/16.6.0/PSpice.ini file:
.lib "nomd.lib" 

*Analysis directives: 
.TRAN  0 1000ns 0 
.OPTIONS ADVCONV
.PROBE64 V(alias(*)) I(alias(*)) W(alias(*)) D(alias(*)) NOISE(alias(*)) 
.INC "..\SCHEMATIC1.net" 



**** INCLUDING SCHEMATIC1.net ****
* source EXP 1
V_V1         N00067 N00079 10Vdc
R_R1         N00079 N00067  3.3k TC=0,0 

**** RESUMING "lab 1.cir" ****
.END

ERROR(ORPSIM-15142): Node N00067 is floating

ERROR(ORPSIM-15142): Node N00079 is floating
