
**** 03/14/16 13:51:31 ****** PSpice Lite (October 2012) ****** ID# 10813 ****

 ** Profile: "SCHEMATIC1-3333"  [ F:\EEE141\GROUP IV\LAB 6\Exp 6-PSpiceFiles\SCHEMATIC1\3333.sim ] 


 ****     CIRCUIT DESCRIPTION


******************************************************************************




** Creating circuit file "3333.cir" 
** WARNING: THIS AUTOMATICALLY GENERATED FILE MAY BE OVERWRITTEN BY SUBSEQUENT SIMULATIONS

*Libraries: 
* Profile Libraries :
* Local Libraries :
* From [PSPICE NETLIST] section of C:\Users\Jubayer\AppData\Roaming\SPB_16.6\cdssetup\OrCAD_PSpice/16.6.0/PSpice.ini file:
.lib "nomd.lib" 

*Analysis directives: 
.TRAN  0 1000ns 0 
.OPTIONS ADVCONV
.PROBE64 V(alias(*)) I(alias(*)) W(alias(*)) D(alias(*)) NOISE(alias(*)) 
.INC "..\SCHEMATIC1.net" 



**** INCLUDING SCHEMATIC1.net ****
* source EXP 6
V_V1         N00157 B 10Vdc
V_V2         N00172 B 5Vdc
R_R3         N00168 N00172  33k TC=0,0 
R_R1         N00157 A  10k TC=0,0 
R_R2         A N00168  1k TC=0,0 
R_R4         B A  22k TC=0,0 
R_R5         B N00168  47k TC=0,0 

**** RESUMING 3333.cir ****
.END

ERROR(ORPSIM-15142): Node N00157 is floating

ERROR(ORPSIM-15142): Node B is floating

ERROR(ORPSIM-15142): Node N00172 is floating

ERROR(ORPSIM-15142): Node N00168 is floating

ERROR(ORPSIM-15142): Node A is floating
